/*--------------------------------*- C++ -*----------------------------------*\
  =========                 |
  \\      /  F ield         | OpenFOAM: The Open Source CFD Toolbox
   \\    /   O peration     | Website:  https://openfoam.org
    \\  /    A nd           | Version:  12
     \\/     M anipulation  |
\*---------------------------------------------------------------------------*/
FoamFile
{
    format      ascii;
    class       volScalarField;
    object      p;
}
// * * * * * * * * * * * * * * * * * * * * * * * * * * * * * * * * * * * * * //

/* The pressure expression differ wether the flow is compressible or incompressible
The first unit expression is for a compressible flow when the second one is for an incompressible flow.
*/

dimensions      [1 -1 -2 0 0 0 0];//[0 2 -2 0 0 0 0];

internalField   uniform 1e5;

boundaryField
{
    inlet
    {
        type            zeroGradient;
    }

    outlet
    {
        type            fixedValue; //It is numerically consistent to associate a defined pressure to a zeroGradient velocity boundary condition
        value           uniform 1e5;
    }

    upperWall
    {
        type            zeroGradient;
    }

    lowerWall
    {
        type            zeroGradient;
    }

    frontAndBack
    {
        type            empty;
    }
}

// ************************************************************************* //
