/*--------------------------------*- C++ -*----------------------------------*\
  =========                 |
  \\      /  F ield         | OpenFOAM: The Open Source CFD Toolbox
   \\    /   O peration     | Website:  https://openfoam.org
    \\  /    A nd           | Version:  12
     \\/     M anipulation  |
\*---------------------------------------------------------------------------*/
FoamFile
{
    format      ascii;
    class       dictionary;
    location    "constant";
    object      momentumTransport;
}
// * * * * * * * * * * * * * * * * * * * * * * * * * * * * * * * * * * * * * //

/* 
Here, a turbulence model is defined. For laminar flows, the "laminar" key word is set as the simulation type. For turbulent flows, in the case of RANS simulation, the specific turbulence model has to be defined as shown bellow.
*/

//simulationType laminar;

simulationType RAS;

RAS
{
    model           kEpsilon;

    turbulence      on;

    printCoeffs     on;
}

// ************************************************************************* //
