/*--------------------------------*- C++ -*----------------------------------*\
  =========                 |
  \\      /  F ield         | OpenFOAM: The Open Source CFD Toolbox
   \\    /   O peration     | Website:  https://openfoam.org
    \\  /    A nd           | Version:  12
     \\/     M anipulation  |
\*---------------------------------------------------------------------------*/
FoamFile
{
    format      ascii;
    class       dictionary;
    location    "system";
    object      fvSchemes;
}
// * * * * * * * * * * * * * * * * * * * * * * * * * * * * * * * * * * * * * //

// An interpolation scheme has to be defined for each term. 

ddtSchemes
{
    default         Euler; // "steadyState" for steady-state simulations
}

gradSchemes
{
    default         Gauss linear;
}

divSchemes
{
    default             none;

    div(phi,U)          Gauss linearUpwind grad(U);
    div(phi,k)          Gauss upwind;
    div(phi,e)          Gauss upwind;
    div(phi,K)          Gauss upwind;
    div(phi,epsilon)    Gauss upwind;
    div(phi,R)          Gauss upwind;
    div(R)              Gauss linear;
    div(phi,nuTilda)    Gauss upwind;
    div(phi,(p|rho))    Gauss upwind;

    div(((rho*nuEff)*dev2(T(grad(U))))) Gauss linear;
}

laplacianSchemes
{
    default         Gauss linear corrected;
}

interpolationSchemes
{
    default         linear;
}

snGradSchemes
{
    default         corrected;
}


// ************************************************************************* //
